54

C -3.56000 -3.56000 -3.56000
C -2.67000 -2.67000 -2.67000
C -3.56000 -1.78000 -1.78000
C -2.67000 -0.89000 -0.89000
C -3.56000  0.00000  0.00000
C -2.67000  0.89000  0.89000
C -1.78000 -3.56000 -1.78000
C -0.89000 -2.67000 -0.89000
C -1.78000 -1.78000  0.00000
C -0.89000 -0.89000  0.89000
C -1.78000  0.00000  1.78000
C -0.89000  0.89000  2.67000
C  0.00000 -3.56000  0.00000
C  0.89000 -2.67000  0.89000
C  0.00000 -1.78000  1.78000
C  0.89000 -0.89000  2.67000
C  0.00000  0.00000  3.56000
C  0.89000  0.89000  4.45000
C -1.78000 -1.78000 -3.56000
C -0.89000 -0.89000 -2.67000
C -1.78000  0.00000 -1.78000
C -0.89000  0.89000 -0.89000
C -1.78000  1.78000  0.00000
C -0.89000  2.67000  0.89000
C  0.00000 -1.78000 -1.78000
C  0.89000 -0.89000 -0.89000
C  0.00000  0.00000  0.00000
C  0.89000  0.89000  0.89000
C  0.00000  1.78000  1.78000
C  0.89000  2.67000  2.67000
C  1.78000 -1.78000  0.00000
C  2.67000 -0.89000  0.89000
C  1.78000  0.00000  1.78000
C  2.67000  0.89000  2.67000
C  1.78000  1.78000  3.56000
C  2.67000  2.67000  4.45000
C  0.00000  0.00000 -3.56000
C  0.89000  0.89000 -2.67000
C  0.00000  1.78000 -1.78000
C  0.89000  2.67000 -0.89000
C  0.00000  3.56000  0.00000
C  0.89000  4.45000  0.89000
C  1.78000  0.00000 -1.78000
C  2.67000  0.89000 -0.89000
C  1.78000  1.78000  0.00000
C  2.67000  2.67000  0.89000
C  1.78000  3.56000  1.78000
C  2.67000  4.45000  2.67000
C  3.56000  0.00000  0.00000
C  4.45000  0.89000  0.89000
C  3.56000  1.78000  1.78000
C  4.45000  2.67000  2.67000
C  3.56000  3.56000  3.56000
C  4.45000  4.45000  4.45000
